   Input file: 
  Output file: 
Database file: 

------------------
Reading data base.
------------------

------------------------------------
Reading input data for simulation 1.
------------------------------------

	TITLE .
	!------------------------------------------------------------------------
	Script to reproduce the explicit single fracture model described in:
	   Tang, D.H., E.O. Frind, and E.A. Sudicky. 1981. Contaminant transport
	   in fractured porous media: Analytical solution for a single fracture,
	   Water Resources Research 17, no. 3: 555-564.
	   https://doi.org/10.1029/WR017i003p00555
	See Figs 9 and 10 in the reference.  This example is also described in:
	  - Weatherill, Graf, Simmons, Cook, Therrien and Reynolds (2008)
	    Discretizing the Fracture-Matrix Interface to Simulate Solute Transport,
	    Groundwater, 46: 606-615. https://doi.org/10.1111/j.1745-6584.2007.00430.x
	  - Watanabe and Kolditz (2015), Numerical stability analysis of two-dimensional
	    solute transport along a discrete fracture in a porous rock matrix,
	    Water Resour. Res., 51, 5855-5868, https://doi.org/10.1002/2015WR017164
	.
	A single row of mobile cells (fracture) and the bedrock matrix adjacent to
	the fracture is simulated as an array of five layers of stagnant cells.
	.
	The bedrock model is 0.8 m long, discretized into 100 cells, Delta-x = 0.008 m.
	As seen in Fig.2 of Weatherill et al (2008) and in Fig.1 of Watanabe and Kolditz (2015)
	the matrix depth is 0.05 m.
	.
	The groundwater velocity is 0.75 m/day.
	.
	Three tracers: input, fracture and rock matrix
	'Ti_', 'Tf_', and 'Tm_'.
	!------------------------------------------------------------------------
	SOLUTION_MASTER_SPECIES
	Ti_                 Ti_         0.0     Ti_                 1.
	Tf_                 Tf_         0.0     Tf_                 1.
	Tm_                 Tm_         0.0     Tm_                 1.
	SOLUTION_SPECIES
	Ti_ = Ti_
	        log_k   0.0
	Tf_ = Tf_
	        log_k   0.0
	Tm_ = Tm_
	        log_k   0.0
	CO3-2 + 10 H+ + 8 e- = CH4 + 3 H2O
		log_k   -9999   # eliminate the formation of methane
		delta_h  0
	USER_PRINT
	start
	 10 Vol_soln = SOLN_VOL # (liters)
	 20 density = RHO # kg_s/L
	 30 Water_mass = TOT("water") # kg_w
	 40 Vol_soln = SOLN_VOL # L
	 50 Mass_soln = Vol_soln * density
	100 PRINT ".*********************************************************************************"
	110 PRINT "density = ",TRIM(STR_F$(density,20,5))," kg/L"
	120 PRINT "Vol_soln = ",TRIM(STR_F$(Vol_soln,20,5))," L"
	130 PRINT "Mass_soln = ",TRIM(STR_F$(Mass_soln,20,5))," kg"
	140 PRINT "H2O = ",TRIM(STR_F$(Water_mass,20,5))," kg"
	200 yr = CALC_VALUE("Years")
	210 IF(yr > 3.155e-7) THEN PRINT "Years =",TRIM(STR_F$(yr,20,5)) 
	220 PRINT "STEP_NO =",STEP_NO, "   CELL_NO =",CELL_NO
	999 PRINT "-*********************************************************************************"
	end
	CALCULATE_VALUES
	Hours
	  start
	    10 SAVE SIM_TIME/3600
	  end
	Days
	  start
	    10 SAVE SIM_TIME/86400
	  end
	Years
	  start
	    10 SAVE SIM_TIME/31556952
	  end
	SOLUTION 0  Inflowing water: Pure water with a tracer
	    temp      25
	    pH        7 charge
	    pe        0 O2(g) -28
	    redox     pe
	    units     mol/kgw
	    density   1 calculate
	    O(0)      0
	    Ti_       1e-6
	    water    1 # kg
	END
-----
TITLE
-----

 .
!------------------------------------------------------------------------
Script to reproduce the explicit single fracture model described in:
   Tang, D.H., E.O. Frind, and E.A. Sudicky. 1981. Contaminant transport
   in fractured porous media: Analytical solution for a single fracture,
   Water Resources Research 17, no. 3: 555-564.
   https://doi.org/10.1029/WR017i003p00555
See Figs 9 and 10 in the reference.  This example is also described in:
  - Weatherill, Graf, Simmons, Cook, Therrien and Reynolds (2008)
    Discretizing the Fracture-Matrix Interface to Simulate Solute Transport,
    Groundwater, 46: 606-615. https://doi.org/10.1111/j.1745-6584.2007.00430.x
  - Watanabe and Kolditz (2015), Numerical stability analysis of two-dimensional
    solute transport along a discrete fracture in a porous rock matrix,
    Water Resour. Res., 51, 5855-5868, https://doi.org/10.1002/2015WR017164
.
A single row of mobile cells (fracture) and the bedrock matrix adjacent to
the fracture is simulated as an array of five layers of stagnant cells.
.
The bedrock model is 0.8 m long, discretized into 100 cells, Delta-x = 0.008 m.
As seen in Fig.2 of Weatherill et al (2008) and in Fig.1 of Watanabe and Kolditz (2015)
the matrix depth is 0.05 m.
.
The groundwater velocity is 0.75 m/day.
.
Three tracers: input, fracture and rock matrix
'Ti_', 'Tf_', and 'Tm_'.
!------------------------------------------------------------------------

-------------------------------------------
Beginning of initial solution calculations.
-------------------------------------------

Initial solution 0.	Inflowing water: Pure water with a tracer

----------------------------------User print-----------------------------------

.********************************************************************************* 
density =  0.99704  kg/L 
Vol_soln =  1.00297  L 
Mass_soln =  1.00000  kg 
H2O =  1.00000  kg 
STEP_NO =            0    CELL_NO =            0 
-********************************************************************************* 

-----------------------------Solution composition------------------------------

	Elements           Molality       Moles

	Ti_              1.000e-006  1.000e-006

----------------------------Description of solution----------------------------

                                       pH  =   6.997      Charge balance
                                       pe  =   6.800      Equilibrium with O2(g)
      Specific Conductance (µS/cm,  25°C)  = 0
                          Density (g/cm³)  =   0.99704 (Iterated) 
                               Volume (L)  =   1.00297
                        Activity of water  =   1.000
                 Ionic strength (mol/kgw)  =  1.006e-007
                       Mass of water (kg)  =  1.000e+000
                 Total alkalinity (eq/kg)  = -5.393e-020
                         Temperature (°C)  =  25.00
                  Electrical balance (eq)  =  5.393e-020
 Percent error, 100*(Cat-|An|)/(Cat+|An|)  =   0.00
                               Iterations  =   4 (8 overall)
                                  Total H  = 1.110124e+002
                                  Total O  = 5.550622e+001

----------------------------Distribution of species----------------------------

                                               Log       Log       Log    mole V
   Species          Molality    Activity  Molality  Activity     Gamma    cm³/mol

   H+             1.006e-007  1.006e-007    -6.997    -6.997    -0.000      0.00
   OH-            1.006e-007  1.006e-007    -6.997    -6.997    -0.000     -4.14
   H2O            5.551e+001  1.000e+000     1.744    -0.000     0.000     18.07
H(0)         3.608e-031
   H2             1.804e-031  1.804e-031   -30.744   -30.744     0.000     28.61
O(0)         2.563e-031
   O2             1.281e-031  1.281e-031   -30.892   -30.892     0.000     30.40
Ti_          1.000e-006
   Ti_            1.000e-006  1.000e-006    -6.000    -6.000     0.000     (0)  

------------------------------Saturation indices-------------------------------

  Phase               SI** log IAP   log K(298 K,   1 atm)

  H2(g)           -27.64    -30.74   -3.10  H2
  H2O(g)           -1.50     -0.00    1.50  H2O
  O2(g)           -28.00    -30.89   -2.89  O2	 Pressure   0.0 atm, phi 1.000

**For a gas, SI = log10(fugacity). Fugacity = pressure * phi / 1 atm.
  For ideal gases, phi = 1.

------------------
End of simulation.
------------------

------------------------------------
Reading input data for simulation 2.
------------------------------------

	SOLUTION 1-101 Fracture water: Pure water with a tracer
	    temp      25
	    pH        7 charge
	    pe        0 O2(g) -28
	    redox     pe
	    units     mol/kgw
	    density   1 calculate
	    O(0)      0
	    Tf_       1e-6
	    water    1 # kg
	END
-------------------------------------------
Beginning of initial solution calculations.
-------------------------------------------

Initial solution 1.	Fracture water: Pure water with a tracer

----------------------------------User print-----------------------------------

.********************************************************************************* 
density =  0.99704  kg/L 
Vol_soln =  1.00297  L 
Mass_soln =  1.00000  kg 
H2O =  1.00000  kg 
STEP_NO =            0    CELL_NO =            1 
-********************************************************************************* 

-----------------------------Solution composition------------------------------

	Elements           Molality       Moles

	Tf_              1.000e-006  1.000e-006

----------------------------Description of solution----------------------------

                                       pH  =   6.997      Charge balance
                                       pe  =   6.800      Equilibrium with O2(g)
      Specific Conductance (µS/cm,  25°C)  = 0
                          Density (g/cm³)  =   0.99704 (Iterated) 
                               Volume (L)  =   1.00297
                        Activity of water  =   1.000
                 Ionic strength (mol/kgw)  =  1.006e-007
                       Mass of water (kg)  =  1.000e+000
                 Total alkalinity (eq/kg)  = -5.393e-020
                         Temperature (°C)  =  25.00
                  Electrical balance (eq)  =  5.393e-020
 Percent error, 100*(Cat-|An|)/(Cat+|An|)  =   0.00
                               Iterations  =   4 (8 overall)
                                  Total H  = 1.110124e+002
                                  Total O  = 5.550622e+001

----------------------------Distribution of species----------------------------

                                               Log       Log       Log    mole V
   Species          Molality    Activity  Molality  Activity     Gamma    cm³/mol

   H+             1.006e-007  1.006e-007    -6.997    -6.997    -0.000      0.00
   OH-            1.006e-007  1.006e-007    -6.997    -6.997    -0.000     -4.14
   H2O            5.551e+001  1.000e+000     1.744    -0.000     0.000     18.07
H(0)         3.608e-031
   H2             1.804e-031  1.804e-031   -30.744   -30.744     0.000     28.61
O(0)         2.563e-031
   O2             1.281e-031  1.281e-031   -30.892   -30.892     0.000     30.40
Tf_          1.000e-006
   Tf_            1.000e-006  1.000e-006    -6.000    -6.000     0.000     (0)  

------------------------------Saturation indices-------------------------------

  Phase               SI** log IAP   log K(298 K,   1 atm)

  H2(g)           -27.64    -30.74   -3.10  H2
  H2O(g)           -1.50     -0.00    1.50  H2O
  O2(g)           -28.00    -30.89   -2.89  O2	 Pressure   0.0 atm, phi 1.000

**For a gas, SI = log10(fugacity). Fugacity = pressure * phi / 1 atm.
  For ideal gases, phi = 1.

------------------
End of simulation.
------------------

------------------------------------
Reading input data for simulation 3.
------------------------------------

	INCLUDE$ 
WARNING: Unknown input, no keyword has been specified.
	TRANSPORT
	   cells  100
	   lengths  100*0.008  # m, total length = 0.8
	   dispersivities  100*0.01 # m
	   time_step 921.60 # s
	   shifts 376
	   flow_direction  forward
	   boundary_conditions   flux  flux
	   correct_disp true
	   diffusion_coefficient 1e-09 # m2/s
	   porosity 100*0.00120
	   stagnant   0
	   punch_frequency   1
	   print_frequency   75
	SELECTED_OUTPUT
	   file   1981Tang-noRMD_100_a=0.010.tsv
	   reset  false
	   distance  true
	   solution
	USER_PUNCH
	   headings dist_z Ti_fr Tf_fr Tm_fr Days
	start
	  10 IF (CELL_NO >= 0 AND CELL_NO <= 101) THEN PUNCH 0
	  15 PUNCH TOT("Ti_")/1e-6,TOT("Tf_")/1e-6,TOT("Tm_")/1e-6,CALC_VALUE("Days")
	end
	END
------------------------------------
Beginning of transport calculations.
------------------------------------

-------------------------------
Equilibrating initial solutions
-------------------------------

Using solution 0.	Inflowing water: Pure water with a tracer

----------------------------------User print-----------------------------------

.********************************************************************************* 
density =  0.99704  kg/L 
Vol_soln =  1.00297  L 
Mass_soln =  1.00000  kg 
H2O =  1.00000  kg 
STEP_NO =            0    CELL_NO =            0 
-********************************************************************************* 

-----------------------------Solution composition------------------------------

	Elements           Molality       Moles

	Ti_              1.000e-006  1.000e-006

----------------------------Description of solution----------------------------

                                       pH  =   6.997      Charge balance
                                       pe  =   6.800      Adjusted to redox equilibrium
      Specific Conductance (µS/cm,  25°C)  = 0
                          Density (g/cm³)  =   0.99704
                               Volume (L)  =   1.00297
                        Activity of water  =   1.000
                 Ionic strength (mol/kgw)  =  1.006e-007
                       Mass of water (kg)  =  1.000e+000
                 Total alkalinity (eq/kg)  = -5.393e-020
                         Temperature (°C)  =  25.00
                  Electrical balance (eq)  =  5.393e-020
 Percent error, 100*(Cat-|An|)/(Cat+|An|)  =   0.00
                               Iterations  =   0
                                  Total H  = 1.110124e+002
                                  Total O  = 5.550622e+001

----------------------------Distribution of species----------------------------

                                               Log       Log       Log    mole V
   Species          Molality    Activity  Molality  Activity     Gamma    cm³/mol

   H+             1.006e-007  1.006e-007    -6.997    -6.997    -0.000      0.00
   OH-            1.006e-007  1.006e-007    -6.997    -6.997    -0.000     -4.14
   H2O            5.551e+001  1.000e+000     1.744    -0.000     0.000     18.07
H(0)         3.608e-031
   H2             1.804e-031  1.804e-031   -30.744   -30.744     0.000     28.61
O(0)         2.563e-031
   O2             1.281e-031  1.281e-031   -30.892   -30.892     0.000     30.40
Ti_          1.000e-006
   Ti_            1.000e-006  1.000e-006    -6.000    -6.000     0.000     (0)  

------------------------------Saturation indices-------------------------------

  Phase               SI** log IAP   log K(298 K,   1 atm)

  H2(g)           -27.64    -30.74   -3.10  H2
  H2O(g)           -1.50     -0.00    1.50  H2O
  O2(g)           -28.00    -30.89   -2.89  O2

**For a gas, SI = log10(fugacity). Fugacity = pressure * phi / 1 atm.
  For ideal gases, phi = 1.

Using solution 1.	Fracture water: Pure water with a tracer

----------------------------------User print-----------------------------------

.********************************************************************************* 
density =  0.99704  kg/L 
Vol_soln =  1.00297  L 
Mass_soln =  1.00000  kg 
H2O =  1.00000  kg 
STEP_NO =            0    CELL_NO =            1 
-********************************************************************************* 

-----------------------------Solution composition------------------------------

	Elements           Molality       Moles

	Tf_              1.000e-006  1.000e-006

----------------------------Description of solution----------------------------

                                       pH  =   6.997      Charge balance
                                       pe  =   6.800      Adjusted to redox equilibrium
      Specific Conductance (µS/cm,  25°C)  = 0
                          Density (g/cm³)  =   0.99704
                               Volume (L)  =   1.00297
                        Activity of water  =   1.000
                 Ionic strength (mol/kgw)  =  1.006e-007
                       Mass of water (kg)  =  1.000e+000
                 Total alkalinity (eq/kg)  = -5.393e-020
                         Temperature (°C)  =  25.00
                  Electrical balance (eq)  =  5.393e-020
 Percent error, 100*(Cat-|An|)/(Cat+|An|)  =   0.00
                               Iterations  =   0
                                  Total H  = 1.110124e+002
                                  Total O  = 5.550622e+001

----------------------------Distribution of species----------------------------

                                               Log       Log       Log    mole V
   Species          Molality    Activity  Molality  Activity     Gamma    cm³/mol

   H+             1.006e-007  1.006e-007    -6.997    -6.997    -0.000      0.00
   OH-            1.006e-007  1.006e-007    -6.997    -6.997    -0.000     -4.14
   H2O            5.551e+001  1.000e+000     1.744    -0.000     0.000     18.07
H(0)         3.608e-031
   H2             1.804e-031  1.804e-031   -30.744   -30.744     0.000     28.61
O(0)         2.563e-031
   O2             1.281e-031  1.281e-031   -30.892   -30.892     0.000     30.40
Tf_          1.000e-006
   Tf_            1.000e-006  1.000e-006    -6.000    -6.000     0.000     (0)  

------------------------------Saturation indices-------------------------------

  Phase               SI** log IAP   log K(298 K,   1 atm)

  H2(g)           -27.64    -30.74   -3.10  H2
  H2O(g)           -1.50     -0.00    1.50  H2O
  O2(g)           -28.00    -30.89   -2.89  O2

**For a gas, SI = log10(fugacity). Fugacity = pressure * phi / 1 atm.
  For ideal gases, phi = 1.

Using solution 2.	Fracture water: Pure water with a tracer

----------------------------------User print-----------------------------------

.********************************************************************************* 
density =  0.99704  kg/L 
Vol_soln =  1.00297  L 
Mass_soln =  1.00000  kg 
H2O =  1.00000  kg 
STEP_NO =            0    CELL_NO =            2 
-********************************************************************************* 

-----------------------------Solution composition------------------------------

	Elements           Molality       Moles

	Tf_              1.000e-006  1.000e-006

----------------------------Description of solution----------------------------

                                       pH  =   6.997      Charge balance
                                       pe  =   6.800      Adjusted to redox equilibrium
      Specific Conductance (µS/cm,  25°C)  = 0
                          Density (g/cm³)  =   0.99704
                               Volume (L)  =   1.00297
                        Activity of water  =   1.000
                 Ionic strength (mol/kgw)  =  1.006e-007
                       Mass of water (kg)  =  1.000e+000
                 Total alkalinity (eq/kg)  = -5.393e-020
                         Temperature (°C)  =  25.00
                  Electrical balance (eq)  =  5.393e-020
 Percent error, 100*(Cat-|An|)/(Cat+|An|)  =   0.00
                               Iterations  =   0
                                  Total H  = 1.110124e+002
                                  Total O  = 5.550622e+001

----------------------------Distribution of species----------------------------

                                               Log       Log       Log    mole V
   Species          Molality    Activity  Molality  Activity     Gamma    cm³/mol

   H+             1.006e-007  1.006e-007    -6.997    -6.997    -0.000      0.00
   OH-            1.006e-007  1.006e-007    -6.997    -6.997    -0.000     -4.14
   H2O            5.551e+001  1.000e+000     1.744    -0.000     0.000     18.07
H(0)         3.608e-031
   H2             1.804e-031  1.804e-031   -30.744   -30.744     0.000     28.61
O(0)         2.563e-031
   O2             1.281e-031  1.281e-031   -30.892   -30.892     0.000     30.40
Tf_          1.000e-006
   Tf_            1.000e-006  1.000e-006    -6.000    -6.000     0.000     (0)  

------------------------------Saturation indices-------------------------------

  Phase               SI** log IAP   log K(298 K,   1 atm)

  H2(g)           -27.64    -30.74   -3.10  H2
  H2O(g)           -1.50     -0.00    1.50  H2O
  O2(g)           -28.00    -30.89   -2.89  O2

**For a gas, SI = log10(fugacity). Fugacity = pressure * phi / 1 atm.
  For ideal gases, phi = 1.

Using solution 3.	Fracture water: Pure water with a tracer

----------------------------------User print-----------------------------------

.********************************************************************************* 
density =  0.99704  kg/L 
Vol_soln =  1.00297  L 
Mass_soln =  1.00000  kg 
H2O =  1.00000  kg 
STEP_NO =            0    CELL_NO =            3 
-********************************************************************************* 

-----------------------------Solution composition------------------------------

	Elements           Molality       Moles

	Tf_              1.000e-006  1.000e-006

----------------------------Description of solution----------------------------

                                       pH  =   6.997      Charge balance
                                       pe  =   6.800      Adjusted to redox equilibrium
      Specific Conductance (µS/cm,  25°C)  = 0
                          Density (g/cm³)  =   0.99704
                               Volume (L)  =   1.00297
                        Activity of water  =   1.000
                 Ionic strength (mol/kgw)  =  1.006e-007
                       Mass of water (kg)  =  1.000e+000
                 Total alkalinity (eq/kg)  = -5.393e-020
                         Temperature (°C)  =  25.00
                  Electrical balance (eq)  =  5.393e-020
 Percent error, 100*(Cat-|An|)/(Cat+|An|)  =   0.00
                               Iterations  =   0
                                  Total H  = 1.110124e+002
                                  Total O  = 5.550622e+001

----------------------------Distribution of species----------------------------

                                               Log       Log       Log    mole V
   Species          Molality    Activity  Molality  Activity     Gamma    cm³/mol

   H+             1.006e-007  1.006e-007    -6.997    -6.997    -0.000      0.00
   OH-            1.006e-007  1.006e-007    -6.997    -6.997    -0.000     -4.14
   H2O            5.551e+001  1.000e+000     1.744    -0.000     0.000     18.07
H(0)         3.608e-031
   H2             1.804e-031  1.804e-031   -30.744   -30.744     0.000     28.61
O(0)         2.563e-031
   O2             1.281e-031  1.281e-031   -30.892   -30.892     0.000     30.40
Tf_          1.000e-006
   Tf_            1.000e-006  1.000e-006    -6.000    -6.000     0.000     (0)  

------------------------------Saturation indices-------------------------------

  Phase               SI** log IAP   log K(298 K,   1 atm)

  H2(g)           -27.64    -30.74   -3.10  H2
  H2O(g)           -1.50     -0.00    1.50  H2O
  O2(g)           -28.00    -30.89   -2.89  O2

**For a gas, SI = log10(fugacity). Fugacity = pressure * phi / 1 atm.
  For ideal gases, phi = 1.

Using solution 4.	Fracture water: Pure water with a tracer

----------------------------------User print-----------------------------------

.********************************************************************************* 
density =  0.99704  kg/L 
Vol_soln =  1.00297  L 
Mass_soln =  1.00000  kg 
H2O =  1.00000  kg 
STEP_NO =            0    CELL_NO =            4 
-********************************************************************************* 

-----------------------------Solution composition------------------------------

	Elements           Molality       Moles

	Tf_              1.000e-006  1.000e-006

----------------------------Description of solution----------------------------

                                       pH  =   6.997      Charge balance
                                       pe  =   6.800      Adjusted to redox equilibrium
      Specific Conductance (µS/cm,  25°C)  = 0
                          Density (g/cm³)  =   0.99704
                               Volume (L)  =   1.00297
                        Activity of water  =   1.000
                 Ionic strength (mol/kgw)  =  1.006e-007
                       Mass of water (kg)  =  1.000e+000
                 Total alkalinity (eq/kg)  = -5.393e-020
                         Temperature (°C)  =  25.00
                  Electrical balance (eq)  =  5.393e-020
 Percent error, 100*(Cat-|An|)/(Cat+|An|)  =   0.00
                               Iterations  =   0
                                  Total H  = 1.110124e+002
                                  Total O  = 5.550622e+001

----------------------------Distribution of species----------------------------

                                               Log       Log       Log    mole V
   Species          Molality    Activity  Molality  Activity     Gamma    cm³/mol

   H+             1.006e-007  1.006e-007    -6.997    -6.997    -0.000      0.00
   OH-            1.006e-007  1.006e-007    -6.997    -6.997    -0.000     -4.14
   H2O            5.551e+001  1.000e+000     1.744    -0.000     0.000     18.07
H(0)         3.608e-031
   H2             1.804e-031  1.804e-031   -30.744   -30.744     0.000     28.61
O(0)         2.563e-031
   O2             1.281e-031  1.281e-031   -30.892   -30.892     0.000     30.40
Tf_          1.000e-006
   Tf_            1.000e-006  1.000e-006    -6.000    -6.000     0.000     (0)  

------------------------------Saturation indices-------------------------------

  Phase               SI** log IAP   log K(298 K,   1 atm)

  H2(g)           -27.64    -30.74   -3.10  H2
  H2O(g)           -1.50     -0.00    1.50  H2O
  O2(g)           -28.00    -30.89   -2.89  O2

**For a gas, SI = log10(fugacity). Fugacity = pressure * phi / 1 atm.
  For ideal gases, phi = 1.

Using solution 5.	Fracture water: Pure water with a tracer

----------------------------------User print-----------------------------------

.********************************************************************************* 
density =  0.99704  kg/L 
Vol_soln =  1.00297  L 
Mass_soln =  1.00000  kg 
H2O =  1.00000  kg 
STEP_NO =            0    CELL_NO =            5 
-********************************************************************************* 

-----------------------------Solution composition------------------------------

	Elements           Molality       Moles

	Tf_              1.000e-006  1.000e-006

----------------------------Description of solution----------------------------

                                       pH  =   6.997      Charge balance
                                       pe  =   6.800      Adjusted to redox equilibrium
      Specific Conductance (µS/cm,  25°C)  = 0
                          Density (g/cm³)  =   0.99704
                               Volume (L)  =   1.00297
                        Activity of water  =   1.000
                 Ionic strength (mol/kgw)  =  1.006e-007
                       Mass of water (kg)  =  1.000e+000
                 Total alkalinity (eq/kg)  = -5.393e-020
                         Temperature (°C)  =  25.00
                  Electrical balance (eq)  =  5.393e-020
 Percent error, 100*(Cat-|An|)/(Cat+|An|)  =   0.00
                               Iterations  =   0
                                  Total H  = 1.110124e+002
                                  Total O  = 5.550622e+001

----------------------------Distribution of species----------------------------

                                               Log       Log       Log    mole V
   Species          Molality    Activity  Molality  Activity     Gamma    cm³/mol

   H+             1.006e-007  1.006e-007    -6.997    -6.997    -0.000      0.00
   OH-            1.006e-007  1.006e-007    -6.997    -6.997    -0.000     -4.14
   H2O            5.551e+001  1.000e+000     1.744    -0.000     0.000     18.07
H(0)         3.608e-031
   H2             1.804e-031  1.804e-031   -30.744   -30.744     0.000     28.61
O(0)         2.563e-031
   O2             1.281e-031  1.281e-031   -30.892   -30.892     0.000     30.40
Tf_          1.000e-006
   Tf_            1.000e-006  1.000e-006    -6.000    -6.000     0.000     (0)  

------------------------------Saturation indices-------------------------------

  Phase               SI** log IAP   log K(298 K,   1 atm)

  H2(g)           -27.64    -30.74   -3.10  H2
  H2O(g)           -1.50     -0.00    1.50  H2O
  O2(g)           -28.00    -30.89   -2.89  O2

**For a gas, SI = log10(fugacity). Fugacity = pressure * phi / 1 atm.
  For ideal gases, phi = 1.

Using solution 6.	Fracture water: Pure water with a tracer

----------------------------------User print-----------------------------------

.********************************************************************************* 
density =  0.99704  kg/L 
Vol_soln =  1.00297  L 
Mass_soln =  1.00000  kg 
H2O =  1.00000  kg 
STEP_NO =            0    CELL_NO =            6 
-********************************************************************************* 

-----------------------------Solution composition------------------------------

	Elements           Molality       Moles

	Tf_              1.000e-006  1.000e-006

----------------------------Description of solution----------------------------

                                       pH  =   6.997      Charge balance
                                       pe  =   6.800      Adjusted to redox equilibrium
      Specific Conductance (µS/cm,  25°C)  = 0
                          Density (g/cm³)  =   0.99704
                               Volume (L)  =   1.00297
                        Activity of water  =   1.000
                 Ionic strength (mol/kgw)  =  1.006e-007
                       Mass of water (kg)  =  1.000e+000
                 Total alkalinity (eq/kg)  = -5.393e-020
                         Temperature (°C)  =  25.00
                  Electrical balance (eq)  =  5.393e-020
 Percent error, 100*(Cat-|An|)/(Cat+|An|)  =   0.00
                               Iterations  =   0
                                  Total H  = 1.110124e+002
                                  Total O  = 5.550622e+001

----------------------------Distribution of species----------------------------

                                               Log       Log       Log    mole V
   Species          Molality    Activity  Molality  Activity     Gamma    cm³/mol

   H+             1.006e-007  1.006e-007    -6.997    -6.997    -0.000      0.00
   OH-            1.006e-007  1.006e-007    -6.997    -6.997    -0.000     -4.14
   H2O            5.551e+001  1.000e+000     1.744    -0.000     0.000     18.07
H(0)         3.608e-031
   H2             1.804e-031  1.804e-031   -30.744   -30.744     0.000     28.61
O(0)         2.563e-031
   O2             1.281e-031  1.281e-031   -30.892   -30.892     0.000     30.40
Tf_          1.000e-006
   Tf_            1.000e-006  1.000e-006    -6.000    -6.000     0.000     (0)  

------------------------------Saturation indices-------------------------------

  Phase               SI** log IAP   log K(298 K,   1 atm)

  H2(g)           -27.64    -30.74   -3.10  H2
  H2O(g)           -1.50     -0.00    1.50  H2O
  O2(g)           -28.00    -30.89   -2.89  O2

**For a gas, SI = log10(fugacity). Fugacity = pressure * phi / 1 atm.
  For ideal gases, phi = 1.

Using solution 7.	Fracture water: Pure water with a tracer

----------------------------------User print-----------------------------------

.********************************************************************************* 
density =  0.99704  kg/L 
Vol_soln =  1.00297  L 
Mass_soln =  1.00000  kg 
H2O =  1.00000  kg 
STEP_NO =            0    CELL_NO =            7 
-********************************************************************************* 

-----------------------------Solution composition------------------------------

	Elements           Molality       Moles

	Tf_              1.000e-006  1.000e-006

----------------------------Description of solution----------------------------

                                       pH  =   6.997      Charge balance
                                       pe  =   6.800      Adjusted to redox equilibrium
      Specific Conductance (µS/cm,  25°C)  = 0
                          Density (g/cm³)  =   0.99704
                               Volume (L)  =   1.00297
                        Activity of water  =   1.000
                 Ionic strength (mol/kgw)  =  1.006e-007
                       Mass of water (kg)  =  1.000e+000
                 Total alkalinity (eq/kg)  = -5.393e-020
                         Temperature (°C)  =  25.00
                  Electrical balance (eq)  =  5.393e-020
 Percent error, 100*(Cat-|An|)/(Cat+|An|)  =   0.00
                               Iterations  =   0
                                  Total H  = 1.110124e+002
                                  Total O  = 5.550622e+001

----------------------------Distribution of species----------------------------

                                               Log       Log       Log    mole V
   Species          Molality    Activity  Molality  Activity     Gamma    cm³/mol

   H+             1.006e-007  1.006e-007    -6.997    -6.997    -0.000      0.00
   OH-            1.006e-007  1.006e-007    -6.997    -6.997    -0.000     -4.14
   H2O            5.551e+001  1.000e+000     1.744    -0.000     0.000     18.07
H(0)         3.608e-031
   H2             1.804e-031  1.804e-031   -30.744   -30.744     0.000     28.61
O(0)         2.563e-031
   O2             1.281e-031  1.281e-031   -30.892   -30.892     0.000     30.40
Tf_          1.000e-006
   Tf_            1.000e-006  1.000e-006    -6.000    -6.000     0.000     (0)  

------------------------------Saturation indices-------------------------------

  Phase               SI** log IAP   log K(298 K,   1 atm)

  H2(g)           -27.64    -30.74   -3.10  H2
  H2O(g)           -1.50     -0.00    1.50  H2O
  O2(g)           -28.00    -30.89   -2.89  O2

**For a gas, SI = log10(fugacity). Fugacity = pressure * phi / 1 atm.
  For ideal gases, phi = 1.

Using solution 8.	Fracture water: Pure water with a tracer

----------------------------------User print-----------------------------------

.********************************************************************************* 
density =  0.99704  kg/L 
Vol_soln =  1.00297  L 
Mass_soln =  1.00000  kg 
H2O =  1.00000  kg 
STEP_NO =            0    CELL_NO =            8 
-********************************************************************************* 

-----------------------------Solution composition------------------------------

	Elements           Molality       Moles

	Tf_              1.000e-006  1.000e-006

----------------------------Description of solution----------------------------

                                       pH  =   6.997      Charge balance
                                       pe  =   6.800      Adjusted to redox equilibrium
      Specific Conductance (µS/cm,  25°C)  = 0
                          Density (g/cm³)  =   0.99704
                               Volume (L)  =   1.00297
                        Activity of water  =   1.000
                 Ionic strength (mol/kgw)  =  1.006e-007
                       Mass of water (kg)  =  1.000e+000
                 Total alkalinity (eq/kg)  = -5.393e-020
                         Temperature (°C)  =  25.00
                  Electrical balance (eq)  =  5.393e-020
 Percent error, 100*(Cat-|An|)/(Cat+|An|)  =   0.00
                               Iterations  =   0
                                  Total H  = 1.110124e+002
                                  Total O  = 5.550622e+001

----------------------------Distribution of species----------------------------

                                               Log       Log       Log    mole V
   Species          Molality    Activity  Molality  Activity     Gamma    cm³/mol

   H+             1.006e-007  1.006e-007    -6.997    -6.997    -0.000      0.00
   OH-            1.006e-007  1.006e-007    -6.997    -6.997    -0.000     -4.14
   H2O            5.551e+001  1.000e+000     1.744    -0.000     0.000     18.07
H(0)         3.608e-031
   H2             1.804e-031  1.804e-031   -30.744   -30.744     0.000     28.61
O(0)         2.563e-031
   O2             1.281e-031  1.281e-031   -30.892   -30.892     0.000     30.40
Tf_          1.000e-006
   Tf_            1.000e-006  1.000e-006    -6.000    -6.000     0.000     (0)  

------------------------------Saturation indices-------------------------------

  Phase               SI** log IAP   log K(298 K,   1 atm)

  H2(g)           -27.64    -30.74   -3.10  H2
  H2O(g)           -1.50     -0.00    1.50  H2O
  O2(g)           -28.00    -30.89   -2.89  O2

**For a gas, SI = log10(fugacity). Fugacity = pressure * phi / 1 atm.
  For ideal gases, phi = 1.

Using solution 9.	Fracture water: Pure water with a tracer

----------------------------------User print-----------------------------------

.********************************************************************************* 
density =  0.99704  kg/L 
Vol_soln =  1.00297  L 
Mass_soln =  1.00000  kg 
H2O =  1.00000  kg 
STEP_NO =            0    CELL_NO =            9 
-********************************************************************************* 

-----------------------------Solution composition------------------------------

	Elements           Molality       Moles

	Tf_              1.000e-006  1.000e-006

----------------------------Description of solution----------------------------

                                       pH  =   6.997      Charge balance
                                       pe  =   6.800      Adjusted to redox equilibrium
      Specific Conductance (µS/cm,  25°C)  = 0
                          Density (g/cm³)  =   0.99704
                               Volume (L)  =   1.00297
                        Activity of water  =   1.000
                 Ionic strength (mol/kgw)  =  1.006e-007
                       Mass of water (kg)  =  1.000e+000
                 Total alkalinity (eq/kg)  = -5.393e-020
                         Temperature (°C)  =  25.00
                  Electrical balance (eq)  =  5.393e-020
 Percent error, 100*(Cat-|An|)/(Cat+|An|)  =   0.00
                               Iterations  =   0
                                  Total H  = 1.110124e+002
                                  Total O  = 5.550622e+001

----------------------------Distribution of species----------------------------

                                               Log       Log       Log    mole V
   Species          Molality    Activity  Molality  Activity     Gamma    cm³/mol

   H+             1.006e-007  1.006e-007    -6.997    -6.997    -0.000      0.00
   OH-            1.006e-007  1.006e-007    -6.997    -6.997    -0.000     -4.14
   H2O            5.551e+001  1.000e+000     1.744    -0.000     0.000     18.07
H(0)         3.608e-031
   H2             1.804e-031  1.804e-031   -30.744   -30.744     0.000     28.61
O(0)         2.563e-031
   O2             1.281e-031  1.281e-031   -30.892   -30.892     0.000     30.40
Tf_          1.000e-006
   Tf_            1.000e-006  1.000e-006    -6.000    -6.000     0.000     (0)  

------------------------------Saturation indices-------------------------------

  Phase               SI** log IAP   log K(298 K,   1 atm)

  H2(g)           -27.64    -30.74   -3.10  H2
  H2O(g)           -1.50     -0.00    1.50  H2O
  O2(g)           -28.00    -30.89   -2.89  O2

**For a gas, SI = log10(fugacity). Fugacity = pressure * phi / 1 atm.
  For ideal gases, phi = 1.

Using solution 10.	Fracture water: Pure water with a tracer

----------------------------------User print-----------------------------------

.********************************************************************************* 
density =  0.99704  kg/L 
Vol_soln =  1.00297  L 
Mass_soln =  1.00000  kg 
H2O =  1.00000  kg 
STEP_NO =            0    CELL_NO =           10 
-********************************************************************************* 

-----------------------------Solution composition------------------------------

	Elements           Molality       Moles

	Tf_              1.000e-006  1.000e-006

----------------------------Description of solution----------------------------

                                       pH  =   6.997      Charge balance
                                       pe  =   6.800      Adjusted to redox equilibrium
      Specific Conductance (µS/cm,  25°C)  = 0
                          Density (g/cm³)  =   0.99704
                               Volume (L)  =   1.00297
                        Activity of water  =   1.000
                 Ionic strength (mol/kgw)  =  1.006e-007
                       Mass of water (kg)  =  1.000e+000
                 Total alkalinity (eq/kg)  = -5.393e-020
                         Temperature (°C)  =  25.00
                  Electrical balance (eq)  =  5.393e-020
 Percent error, 100*(Cat-|An|)/(Cat+|An|)  =   0.00
                               Iterations  =   0
                                  Total H  = 1.110124e+002
                                  Total O  = 5.550622e+001

----------------------------Distribution of species----------------------------

                                               Log       Log       Log    mole V
   Species          Molality    Activity  Molality  Activity     Gamma    cm³/mol

   H+             1.006e-007  1.006e-007    -6.997    -6.997    -0.000      0.00
   OH-            1.006e-007  1.006e-007    -6.997    -6.997    -0.000     -4.14
   H2O            5.551e+001  1.000e+000     1.744    -0.000     0.000     18.07
H(0)         3.608e-031
   H2             1.804e-031  1.804e-031   -30.744   -30.744     0.000     28.61
O(0)         2.563e-031
   O2             1.281e-031  1.281e-031   -30.892   -30.892     0.000     30.40
Tf_          1.000e-006
   Tf_            1.000e-006  1.000e-006    -6.000    -6.000     0.000     (0)  

------------------------------Saturation indices-------------------------------

  Phase               SI** log IAP   log K(298 K,   1 atm)

  H2(g)           -27.64    -30.74   -3.10  H2
  H2O(g)           -1.50     -0.00    1.50  H2O
  O2(g)           -28.00    -30.89   -2.89  O2

**For a gas, SI = log10(fugacity). Fugacity = pressure * phi / 1 atm.
  For ideal gases, phi = 1.

Using solution 11.	Fracture water: Pure water with a tracer

----------------------------------User print-----------------------------------

.********************************************************************************* 
density =  0.99704  kg/L 
Vol_soln =  1.00297  L 
Mass_soln =  1.00000  kg 
H2O =  1.00000  kg 
STEP_NO =            0    CELL_NO =           11 
-********************************************************************************* 

-----------------------------Solution composition------------------------------

	Elements           Molality       Moles

	Tf_              1.000e-006  1.000e-006

----------------------------Description of solution----------------------------

                                       pH  =   6.997      Charge balance
                                       pe  =   6.800      Adjusted to redox equilibrium
      Specific Conductance (µS/cm,  25°C)  = 0
                          Density (g/cm³)  =   0.99704
                               Volume (L)  =   1.00297
                        Activity of water  =   1.000
                 Ionic strength (mol/kgw)  =  1.006e-007
                       Mass of water (kg)  =  1.000e+000
                 Total alkalinity (eq/kg)  = -5.393e-020
                         Temperature (°C)  =  25.00
                  Electrical balance (eq)  =  5.393e-020
 Percent error, 100*(Cat-|An|)/(Cat+|An|)  =   0.00
                               Iterations  =   0
                                  Total H  = 1.110124e+002
                                  Total O  = 5.550622e+001

----------------------------Distribution of species----------------------------

                                               Log       Log       Log    mole V
   Species          Molality    Activity  Molality  Activity     Gamma    cm³/mol

   H+             1.006e-007  1.006e-007    -6.997    -6.997    -0.000      0.00
   OH-            1.006e-007  1.006e-007    -6.997    -6.997    -0.000     -4.14
   H2O            5.551e+001  1.000e+000     1.744    -0.000     0.000     18.07
H(0)         3.608e-031
   H2             1.804e-031  1.804e-031   -30.744   -30.744     0.000     28.61
O(0)         2.563e-031
   O2             1.281e-031  1.281e-031   -30.892   -30.892     0.000     30.40
Tf_          1.000e-006
   Tf_            1.000e-006  1.000e-006    -6.000    -6.000     0.000     (0)  

------------------------------Saturation indices-------------------------------

  Phase               SI** log IAP   log K(298 K,   1 atm)

  H2(g)           -27.64    -30.74   -3.10  H2
  H2O(g)           -1.50     -0.00    1.50  H2O
  O2(g)           -28.00    -30.89   -2.89  O2

**For a gas, SI = log10(fugacity). Fugacity = pressure * phi / 1 atm.
  For ideal gases, phi = 1.

Using solution 12.	Fracture water: Pure water with a tracer

----------------------------------User print-----------------------------------

.********************************************************************************* 
density =  0.99704  kg/L 
Vol_soln =  1.00297  L 
Mass_soln =  1.00000  kg 
H2O =  1.00000  kg 
STEP_NO =            0    CELL_NO =           12 
-********************************************************************************* 

-----------------------------Solution composition------------------------------

	Elements           Molality       Moles

	Tf_              1.000e-006  1.000e-006

----------------------------Description of solution----------------------------

                                       pH  =   6.997      Charge balance
                                       pe  =   6.800      Adjusted to redox equilibrium
      Specific Conductance (µS/cm,  25°C)  = 0
                          Density (g/cm³)  =   0.99704
                               Volume (L)  =   1.00297
                        Activity of water  =   1.000
                 Ionic strength (mol/kgw)  =  1.006e-007
                       Mass of water (kg)  =  1.000e+000
                 Total alkalinity (eq/kg)  = -5.393e-020
                         Temperature (°C)  =  25.00
                  Electrical balance (eq)  =  5.393e-020
 Percent error, 100*(Cat-|An|)/(Cat+|An|)  =   0.00
                               Iterations  =   0
                                  Total H  = 1.110124e+002
                                  Total O  = 5.550622e+001

----------------------------Distribution of species----------------------------

                                               Log       Log       Log    mole V
   Species          Molality    Activity  Molality  Activity     Gamma    cm³/mol

   H+             1.006e-007  1.006e-007    -6.997    -6.997    -0.000      0.00
   OH-            1.006e-007  1.006e-007    -6.997    -6.997    -0.000     -4.14
   H2O            5.551e+001  1.000e+000     1.744    -0.000     0.000     18.07
H(0)         3.608e-031
   H2             1.804e-031  1.804e-031   -30.744   -30.744     0.000     28.61
O(0)         2.563e-031
   O2             1.281e-031  1.281e-031   -30.892   -30.892     0.000     30.40
Tf_          1.000e-006
   Tf_            1.000e-006  1.000e-006    -6.000    -6.000     0.000     (0)  

------------------------------Saturation indices-------------------------------

  Phase               SI** log IAP   log K(298 K,   1 atm)

  H2(g)           -27.64    -30.74   -3.10  H2
  H2O(g)           -1.50     -0.00    1.50  H2O
  O2(g)           -28.00    -30.89   -2.89  O2

**For a gas, SI = log10(fugacity). Fugacity = pressure * phi / 1 atm.
  For ideal gases, phi = 1.

Using solution 13.	Fracture water: Pure water with a tracer

----------------------------------User print-----------------------------------

.********************************************************************************* 
density =  0.99704  kg/L 
Vol_soln =  1.00297  L 
Mass_soln =  1.00000  kg 
H2O =  1.00000  kg 
STEP_NO =            0    CELL_NO =           13 
-********************************************************************************* 

-----------------------------Solution composition------------------------------

	Elements           Molality       Moles

	Tf_              1.000e-006  1.000e-006

----------------------------Description of solution----------------------------

                                       pH  =   6.997      Charge balance
                                       pe  =   6.800      Adjusted to redox equilibrium
      Specific Conductance (µS/cm,  25°C)  = 0
                          Density (g/cm³)  =   0.99704
                               Volume (L)  =   1.00297
                        Activity of water  =   1.000
                 Ionic strength (mol/kgw)  =  1.006e-007
                       Mass of water (kg)  =  1.000e+000
                 Total alkalinity (eq/kg)  = -5.393e-020
                         Temperature (°C)  =  25.00
                  Electrical balance (eq)  =  5.393e-020
 Percent error, 100*(Cat-|An|)/(Cat+|An|)  =   0.00
                               Iterations  =   0
                                  Total H  = 1.110124e+002
                                  Total O  = 5.550622e+001

----------------------------Distribution of species----------------------------

                                               Log       Log       Log    mole V
   Species          Molality    Activity  Molality  Activity     Gamma    cm³/mol

   H+             1.006e-007  1.006e-007    -6.997    -6.997    -0.000      0.00
   OH-            1.006e-007  1.006e-007    -6.997    -6.997    -0.000     -4.14
   H2O            5.551e+001  1.000e+000     1.744    -0.000     0.000     18.07
H(0)         3.608e-031
   H2             1.804e-031  1.804e-031   -30.744   -30.744     0.000     28.61
O(0)         2.563e-031
   O2             1.281e-031  1.281e-031   -30.892   -30.892     0.000     30.40
Tf_          1.000e-006
   Tf_            1.000e-006  1.000e-006    -6.000    -6.000     0.000     (0)  

------------------------------Saturation indices-------------------------------

  Phase               SI** log IAP   log K(298 K,   1 atm)

  H2(g)           -27.64    -30.74   -3.10  H2
  H2O(g)           -1.50     -0.00    1.50  H2O
  O2(g)           -28.00    -30.89   -2.89  O2

**For a gas, SI = log10(fugacity). Fugacity = pressure * phi / 1 atm.
  For ideal gases, phi = 1.

Using solution 14.	Fracture water: Pure water with a tracer

----------------------------------User print-----------------------------------

.********************************************************************************* 
density =  0.99704  kg/L 
Vol_soln =  1.00297  L 
Mass_soln =  1.00000  kg 
H2O =  1.00000  kg 
STEP_NO =            0    CELL_NO =           14 
-********************************************************************************* 

-----------------------------Solution composition------------------------------

	Elements           Molality       Moles

	Tf_              1.000e-006  1.000e-006

----------------------------Description of solution----------------------------

                                       pH  =   6.997      Charge balance
                                       pe  =   6.800      Adjusted to redox equilibrium
      Specific Conductance (µS/cm,  25°C)  = 0
                          Density (g/cm³)  =   0.99704
                               Volume (L)  =   1.00297
                        Activity of water  =   1.000
                 Ionic strength (mol/kgw)  =  1.006e-007
                       Mass of water (kg)  =  1.000e+000
                 Total alkalinity (eq/kg)  = -5.393e-020
                         Temperature (°C)  =  25.00
                  Electrical balance (eq)  =  5.393e-020
 Percent error, 100*(Cat-|An|)/(Cat+|An|)  =   0.00
                               Iterations  =   0
                                  Total H  = 1.110124e+002
                                  Total O  = 5.550622e+001

----------------------------Distribution of species----------------------------

                                               Log       Log       Log    mole V
   Species          Molality    Activity  Molality  Activity     Gamma    cm³/mol

   H+             1.006e-007  1.006e-007    -6.997    -6.997    -0.000      0.00
   OH-            1.006e-007  1.006e-007    -6.997    -6.997    -0.000     -4.14
   H2O            5.551e+001  1.000e+000     1.744    -0.000     0.000     18.07
H(0)         3.608e-031
   H2             1.804e-031  1.804e-031   -30.744   -30.744     0.000     28.61
O(0)         2.563e-031
   O2             1.281e-031  1.281e-031   -30.892   -30.892     0.000     30.40
Tf_          1.000e-006
   Tf_            1.000e-006  1.000e-006    -6.000    -6.000     0.000     (0)  

------------------------------Saturation indices-------------------------------

  Phase               SI** log IAP   log K(298 K,   1 atm)

  H2(g)           -27.64    -30.74   -3.10  H2
  H2O(g)           -1.50     -0.00    1.50  H2O
  O2(g)           -28.00    -30.89   -2.89  O2

**For a gas, SI = log10(fugacity). Fugacity = pressure * phi / 1 atm.
  For ideal gases, phi = 1.

Using solution 15.	Fracture water: Pure water with a tracer

----------------------------------User print-----------------------------------

.********************************************************************************* 
density =  0.99704  kg/L 
Vol_soln =  1.00297  L 
Mass_soln =  1.00000  kg 
H2O =  1.00000  kg 
STEP_NO =            0    CELL_NO =           15 
-********************************************************************************* 

-----------------------------Solution composition------------------------------

	Elements           Molality       Moles

	Tf_              1.000e-006  1.000e-006

----------------------------Description of solution----------------------------

                                       pH  =   6.997      Charge balance
                                       pe  =   6.800      Adjusted to redox equilibrium
      Specific Conductance (µS/cm,  25°C)  = 0
                          Density (g/cm³)  =   0.99704
                               Volume (L)  =   1.00297
                        Activity of water  =   1.000
                 Ionic strength (mol/kgw)  =  1.006e-007
                       Mass of water (kg)  =  1.000e+000
                 Total alkalinity (eq/kg)  = -5.393e-020
                         Temperature (°C)  =  25.00
                  Electrical balance (eq)  =  5.393e-020
 Percent error, 100*(Cat-|An|)/(Cat+|An|)  =   0.00
                               Iterations  =   0
                                  Total H  = 1.110124e+002
                                  Total O  = 5.550622e+001

----------------------------Distribution of species----------------------------

                                               Log       Log       Log    mole V
   Species          Molality    Activity  Molality  Activity     Gamma    cm³/mol

   H+             1.006e-007  1.006e-007    -6.997    -6.997    -0.000      0.00
   OH-            1.006e-007  1.006e-007    -6.997    -6.997    -0.000     -4.14
   H2O            5.551e+001  1.000e+000     1.744    -0.000     0.000     18.07
H(0)         3.608e-031
   H2             1.804e-031  1.804e-031   -30.744   -30.744     0.000     28.61
O(0)         2.563e-031
   O2             1.281e-031  1.281e-031   -30.892   -30.892     0.000     30.40
Tf_          1.000e-006
   Tf_            1.000e-006  1.000e-006    -6.000    -6.000     0.000     (0)  

------------------------------Saturation indices-------------------------------

  Phase               SI** log IAP   log K(298 K,   1 atm)

  H2(g)           -27.64    -30.74   -3.10  H2
  H2O(g)           -1.50     -0.00    1.50  H2O
  O2(g)           -28.00    -30.89   -2.89  O2

**For a gas, SI = log10(fugacity). Fugacity = pressure * phi / 1 atm.
  For ideal gases, phi = 1.

Using solution 16.	Fracture water: Pure water with a tracer

----------------------------------User print-----------------------------------

.********************************************************************************* 
density =  0.99704  kg/L 
Vol_soln =  1.00297  L 
Mass_soln =  1.00000  kg 
H2O =  1.00000  kg 
STEP_NO =            0    CELL_NO =           16 
-********************************************************************************* 

-----------------------------Solution composition------------------------------

	Elements           Molality       Moles

	Tf_              1.000e-006  1.000e-006

----------------------------Description of solution----------------------------

                                       pH  =   6.997      Charge balance
                                       pe  =   6.800      Adjusted to redox equilibrium
      Specific Conductance (µS/cm,  25°C)  = 0
                          Density (g/cm³)  =   0.99704
                               Volume (L)  =   1.00297
                        Activity of water  =   1.000
                 Ionic strength (mol/kgw)  =  1.006e-007
                       Mass of water (kg)  =  1.000e+000
                 Total alkalinity (eq/kg)  = -5.393e-020
                         Temperature (°C)  =  25.00
                  Electrical balance (eq)  =  5.393e-020
 Percent error, 100*(Cat-|An|)/(Cat+|An|)  =   0.00
                               Iterations  =   0
                                  Total H  = 1.110124e+002
                                  Total O  = 5.550622e+001

----------------------------Distribution of species----------------------------

                                               Log       Log       Log    mole V
   Species          Molality    Activity  Molality  Activity     Gamma    cm³/mol

   H+             1.006e-007  1.006e-007    -6.997    -6.997    -0.000      0.00
   OH-            1.006e-007  1.006e-007    -6.997    -6.997    -0.000     -4.14
   H2O            5.551e+001  1.000e+000     1.744    -0.000     0.000     18.07
H(0)         3.608e-031
   H2             1.804e-031  1.804e-031   -30.744   -30.744     0.000     28.61
O(0)         2.563e-031
   O2             1.281e-031  1.281e-031   -30.892   -30.892     0.000     30.40
Tf_          1.000e-006
   Tf_            1.000e-006  1.000e-006    -6.000    -6.000     0.000     (0)  

------------------------------Saturation indices-------------------------------

  Phase               SI** log IAP   log K(298 K,   1 atm)

  H2(g)           -27.64    -30.74   -3.10  H2
  H2O(g)           -1.50     -0.00    1.50  H2O
  O2(g)           -28.00    -30.89   -2.89  O2

**For a gas, SI = log10(fugacity). Fugacity = pressure * phi / 1 atm.
  For ideal gases, phi = 1.

Using solution 17.	Fracture water: Pure water with a tracer

----------------------------------User print-----------------------------------

.********************************************************************************* 
density =  0.99704  kg/L 
Vol_soln =  1.00297  L 
Mass_soln =  1.00000  kg 
H2O =  1.00000  kg 
STEP_NO =            0    CELL_NO =           17 
-********************************************************************************* 

-----------------------------Solution composition------------------------------

	Elements           Molality       Moles

	Tf_              1.000e-006  1.000e-006

----------------------------Description of solution----------------------------

                                       pH  =   6.997      Charge balance
                                       pe  =   6.800      Adjusted to redox equilibrium
      Specific Conductance (µS/cm,  25°C)  = 0
                          Density (g/cm³)  =   0.99704
                               Volume (L)  =   1.00297
                        Activity of water  =   1.000
                 Ionic strength (mol/kgw)  =  1.006e-007
                       Mass of water (kg)  =  1.000e+000
                 Total alkalinity (eq/kg)  = -5.393e-020
                         Temperature (°C)  =  25.00
                  Electrical balance (eq)  =  5.393e-020
 Percent error, 100*(Cat-|An|)/(Cat+|An|)  =   0.00
                               Iterations  =   0
                                  Total H  = 1.110124e+002
                                  Total O  = 5.550622e+001

----------------------------Distribution of species----------------------------

                                               Log       Log       Log    mole V
   Species          Molality    Activity  Molality  Activity     Gamma    cm³/mol

   H+             1.006e-007  1.006e-007    -6.997    -6.997    -0.000      0.00
   OH-            1.006e-007  1.006e-007    -6.997    -6.997    -0.000     -4.14
   H2O            5.551e+001  1.000e+000     1.744    -0.000     0.000     18.07
H(0)         3.608e-031
   H2             1.804e-031  1.804e-031   -30.744   -30.744     0.000     28.61
O(0)         2.563e-031
   O2             1.281e-031  1.281e-031   -30.892   -30.892     0.000     30.40
Tf_          1.000e-006
   Tf_            1.000e-006  1.000e-006    -6.000    -6.000     0.000     (0)  

------------------------------Saturation indices-------------------------------

  Phase               SI** log IAP   log K(298 K,   1 atm)

  H2(g)           -27.64    -30.74   -3.10  H2
  H2O(g)           -1.50     -0.00    1.50  H2O
  O2(g)           -28.00    -30.89   -2.89  O2

**For a gas, SI = log10(fugacity). Fugacity = pressure * phi / 1 atm.
  For ideal gases, phi = 1.

Using solution 18.	Fracture water: Pure water with a tracer

----------------------------------User print-----------------------------------

.********************************************************************************* 
density =  0.99704  kg/L 
Vol_soln =  1.00297  L 
Mass_soln =  1.00000  kg 
H2O =  1.00000  kg 
STEP_NO =            0    CELL_NO =           18 
-********************************************************************************* 

-----------------------------Solution composition------------------------------

	Elements           Molality       Moles

	Tf_              1.000e-006  1.000e-006

----------------------------Description of solution----------------------------

                                       pH  =   6.997      Charge balance
                                       pe  =   6.800      Adjusted to redox equilibrium
      Specific Conductance (µS/cm,  25°C)  = 0
                          Density (g/cm³)  =   0.99704
                               Volume (L)  =   1.00297
                        Activity of water  =   1.000
                 Ionic strength (mol/kgw)  =  1.006e-007
                       Mass of water (kg)  =  1.000e+000
                 Total alkalinity (eq/kg)  = -5.393e-020
                         Temperature (°C)  =  25.00
                  Electrical balance (eq)  =  5.393e-020
 Percent error, 100*(Cat-|An|)/(Cat+|An|)  =   0.00
                               Iterations  =   0
                                  Total H  = 1.110124e+002
                                  Total O  = 5.550622e+001

----------------------------Distribution of species----------------------------

                                               Log       Log       Log    mole V
   Species          Molality    Activity  Molality  Activity     Gamma    cm³/mol

   H+             1.006e-007  1.006e-007    -6.997    -6.997    -0.000      0.00
   OH-            1.006e-007  1.006e-007    -6.997    -6.997    -0.000     -4.14
   H2O            5.551e+001  1.000e+000     1.744    -0.000     0.000     18.07
H(0)         3.608e-031
   H2             1.804e-031  1.804e-031   -30.744   -30.744     0.000     28.61
O(0)         2.563e-031
   O2             1.281e-031  1.281e-031   -30.892   -30.892     0.000     30.40
Tf_          1.000e-006
   Tf_            1.000e-006  1.000e-006    -6.000    -6.000     0.000     (0)  

------------------------------Saturation indices-------------------------------

  Phase               SI** log IAP   log K(298 K,   1 atm)

  H2(g)           -27.64    -30.74   -3.10  H2
  H2O(g)           -1.50     -0.00    1.50  H2O
  O2(g)           -28.00    -30.89   -2.89  O2

**For a gas, SI = log10(fugacity). Fugacity = pressure * phi / 1 atm.
  For ideal gases, phi = 1.

Using solution 19.	Fracture water: Pure water with a tracer

----------------------------------User print-----------------------------------

.********************************************************************************* 
density =  0.99704  kg/L 
Vol_soln =  1.00297  L 
Mass_soln =  1.00000  kg 
H2O =  1.00000  kg 
STEP_NO =            0    CELL_NO =           19 
-********************************************************************************* 

-----------------------------Solution composition------------------------------

	Elements           Molality       Moles

	Tf_              1.000e-006  1.000e-006

----------------------------Description of solution----------------------------

                                       pH  =   6.997      Charge balance
                                       pe  =   6.800      Adjusted to redox equilibrium
      Specific Conductance (µS/cm,  25°C)  = 0
                          Density (g/cm³)  =   0.99704
                               Volume (L)  =   1.00297
                        Activity of water  =   1.000
                 Ionic strength (mol/kgw)  =  1.006e-007
                       Mass of water (kg)  =  1.000e+000
                 Total alkalinity (eq/kg)  = -5.393e-020
                         Temperature (°C)  =  25.00
                  Electrical balance (eq)  =  5.393e-020
 Percent error, 100*(Cat-|An|)/(Cat+|An|)  =   0.00
                               Iterations  =   0
                                  Total H  = 1.110124e+002
                                  Total O  = 5.550622e+001

----------------------------Distribution of species----------------------------

                                               Log       Log       Log    mole V
   Species          Molality    Activity  Molality  Activity     Gamma    cm³/mol

   H+             1.006e-007  1.006e-007    -6.997    -6.997    -0.000      0.00
   OH-            1.006e-007  1.006e-007    -6.997    -6.997    -0.000     -4.14
   H2O            5.551e+001  1.000e+000     1.744    -0.000     0.000     18.07
H(0)         3.608e-031
   H2             1.804e-031  1.804e-031   -30.744   -30.744     0.000     28.61
O(0)         2.563e-031
   O2             1.281e-031  1.281e-031   -30.892   -30.892     0.000     30.40
Tf_          1.000e-006
   Tf_            1.000e-006  1.000e-006    -6.000    -6.000     0.000     (0)  

------------------------------Saturation indices-------------------------------

  Phase               SI** log IAP   log K(298 K,   1 atm)

  H2(g)           -27.64    -30.74   -3.10  H2
  H2O(g)           -1.50     -0.00    1.50  H2O
  O2(g)           -28.00    -30.89   -2.89  O2

**For a gas, SI = log10(fugacity). Fugacity = pressure * phi / 1 atm.
  For ideal gases, phi = 1.

Using solution 20.	Fracture water: Pure water with a tracer

----------------------------------User print-----------------------------------

.********************************************************************************* 
density =  0.99704  kg/L 
Vol_soln =  1.00297  L 
Mass_soln =  1.00000  kg 
H2O =  1.00000  kg 
STEP_NO =            0    CELL_NO =           20 
-********************************************************************************* 

-----------------------------Solution composition------------------------------

	Elements           Molality       Moles

	Tf_              1.000e-006  1.000e-006

----------------------------Description of solution----------------------------

                                       pH  =   6.997      Charge balance
                                       pe  =   6.800      Adjusted to redox equilibrium
      Specific Conductance (µS/cm,  25°C)  = 0
                          Density (g/cm³)  =   0.99704
                               Volume (L)  =   1.00297
                        Activity of water  =   1.000
                 Ionic strength (mol/kgw)  =  1.006e-007
                       Mass of water (kg)  =  1.000e+000
                 Total alkalinity (eq/kg)  = -5.393e-020
                         Temperature (°C)  =  25.00
                  Electrical balance (eq)  =  5.393e-020
 Percent error, 100*(Cat-|An|)/(Cat+|An|)  =   0.00
                               Iterations  =   0
                                  Total H  = 1.110124e+002
                                  Total O  = 5.550622e+001

----------------------------Distribution of species----------------------------

                                               Log       Log       Log    mole V
   Species          Molality    Activity  Molality  Activity     Gamma    cm³/mol

   H+             1.006e-007  1.006e-007    -6.997    -6.997    -0.000      0.00
   OH-            1.006e-007  1.006e-007    -6.997    -6.997    -0.000     -4.14
   H2O            5.551e+001  1.000e+000     1.744    -0.000     0.000     18.07
H(0)         3.608e-031
   H2             1.804e-031  1.804e-031   -30.744   -30.744     0.000     28.61
O(0)         2.563e-031
   O2             1.281e-031  1.281e-031   -30.892   -30.892     0.000     30.40
Tf_          1.000e-006
   Tf_            1.000e-006  1.000e-006    -6.000    -6.000     0.000     (0)  

------------------------------Saturation indices-------------------------------

  Phase               SI** log IAP   log K(298 K,   1 atm)

  H2(g)           -27.64    -30.74   -3.10  H2
  H2O(g)           -1.50     -0.00    1.50  H2O
  O2(g)           -28.00    -30.89   -2.89  O2

**For a gas, SI = log10(fugacity). Fugacity = pressure * phi / 1 atm.
  For ideal gases, phi = 1.

Using solution 21.	Fracture water: Pure water with a tracer

----------------------------------User print-----------------------------------

.********************************************************************************* 
density =  0.99704  kg/L 
Vol_soln =  1.00297  L 
Mass_soln =  1.00000  kg 
H2O =  1.00000  kg 
STEP_NO =            0    CELL_NO =           21 
-********************************************************************************* 

-----------------------------Solution composition------------------------------

	Elements           Molality       Moles

	Tf_              1.000e-006  1.000e-006

----------------------------Description of solution----------------------------

                                       pH  =   6.997      Charge balance
                                       pe  =   6.800      Adjusted to redox equilibrium
      Specific Conductance (µS/cm,  25°C)  = 0
                          Density (g/cm³)  =   0.99704
                               Volume (L)  =   1.00297
                        Activity of water  =   1.000
                 Ionic strength (mol/kgw)  =  1.006e-007
                       Mass of water (kg)  =  1.000e+000
                 Total alkalinity (eq/kg)  = -5.393e-020
                         Temperature (°C)  =  25.00
                  Electrical balance (eq)  =  5.393e-020
 Percent error, 100*(Cat-|An|)/(Cat+|An|)  =   0.00
                               Iterations  =   0
                                  Total H  = 1.110124e+002
                                  Total O  = 5.550622e+001

----------------------------Distribution of species----------------------------

                                               Log       Log       Log    mole V
   Species          Molality    Activity  Molality  Activity     Gamma    cm³/mol

   H+             1.006e-007  1.006e-007    -6.997    -6.997    -0.000      0.00
   OH-            1.006e-007  1.006e-007    -6.997    -6.997    -0.000     -4.14
   H2O            5.551e+001  1.000e+000     1.744    -0.000     0.000     18.07
H(0)         3.608e-031
   H2             1.804e-031  1.804e-031   -30.744   -30.744     0.000     28.61
O(0)         2.563e-031
   O2             1.281e-031  1.281e-031   -30.892   -30.892     0.000     30.40
Tf_          1.000e-006
   Tf_            1.000e-006  1.000e-006    -6.000    -6.000     0.000     (0)  

------------------------------Saturation indices-------------------------------

  Phase               SI** log IAP   log K(298 K,   1 atm)

  H2(g)           -27.64    -30.74   -3.10  H2
  H2O(g)           -1.50     -0.00    1.50  H2O
  O2(g)           -28.00    -30.89   -2.89  O2

**For a gas, SI = log10(fugacity). Fugacity = pressure * phi / 1 atm.
  For ideal gases, phi = 1.

Using solution 22.	Fracture water: Pure water with a tracer

----------------------------------User print-----------------------------------

.********************************************************************************* 
density =  0.99704  kg/L 
Vol_soln =  1.00297  L 
Mass_soln =  1.00000  kg 
H2O =  1.00000  kg 
STEP_NO =            0    CELL_NO =           22 
-********************************************************************************* 

-----------------------------Solution composition------------------------------

	Elements           Molality       Moles

	Tf_              1.000e-006  1.000e-006

----------------------------Description of solution----------------------------

                                       pH  =   6.997      Charge balance
                                       pe  =   6.800      Adjusted to redox equilibrium
      Specific Conductance (µS/cm,  25°C)  = 0
                          Density (g/cm³)  =   0.99704
                               Volume (L)  =   1.00297
                        Activity of water  =   1.000
                 Ionic strength (mol/kgw)  =  1.006e-007
                       Mass of water (kg)  =  1.000e+000
                 Total alkalinity (eq/kg)  = -5.393e-020
                         Temperature (°C)  =  25.00
                  Electrical balance (eq)  =  5.393e-020
 Percent error, 100*(Cat-|An|)/(Cat+|An|)  =   0.00
                               Iterations  =   0
                                  Total H  = 1.110124e+002
                                  Total O  = 5.550622e+001

----------------------------Distribution of species----------------------------

                                               Log       Log       Log    mole V
   Species          Molality    Activity  Molality  Activity     Gamma    cm³/mol

   H+             1.006e-007  1.006e-007    -6.997    -6.997    -0.000      0.00
   OH-            1.006e-007  1.006e-007    -6.997    -6.997    -0.000     -4.14
   H2O            5.551e+001  1.000e+000     1.744    -0.000     0.000     18.07
H(0)         3.608e-031
   H2             1.804e-031  1.804e-031   -30.744   -30.744     0.000     28.61
O(0)         2.563e-031
   O2             1.281e-031  1.281e-031   -30.892   -30.892     0.000     30.40
Tf_          1.000e-006
   Tf_            1.000e-006  1.000e-006    -6.000    -6.000     0.000     (0)  

------------------------------Saturation indices-------------------------------

  Phase               SI** log IAP   log K(298 K,   1 atm)

  H2(g)           -27.64    -30.74   -3.10  H2
  H2O(g)           -1.50     -0.00    1.50  H2O
  O2(g)           -28.00    -30.89   -2.89  O2

**For a gas, SI = log10(fugacity). Fugacity = pressure * phi / 1 atm.
  For ideal gases, phi = 1.

Using solution 23.	Fracture water: Pure water with a tracer

----------------------------------User print-----------------------------------

.********************************************************************************* 
density =  0.99704  kg/L 
Vol_soln =  1.00297  L 
Mass_soln =  1.00000  kg 
H2O =  1.00000  kg 
STEP_NO =            0    CELL_NO =           23 
-********************************************************************************* 

-----------------------------Solution composition------------------------------

	Elements           Molality       Moles

	Tf_              1.000e-006  1.000e-006

----------------------------Description of solution----------------------------

                                       pH  =   6.997      Charge balance
                                       pe  =   6.800      Adjusted to redox equilibrium
      Specific Conductance (µS/cm,  25°C)  = 0
                          Density (g/cm³)  =   0.99704
                               Volume (L)  =   1.00297
                        Activity of water  =   1.000
                 Ionic strength (mol/kgw)  =  1.006e-007
                       Mass of water (kg)  =  1.000e+000
                 Total alkalinity (eq/kg)  = -5.393e-020
                         Temperature (°C)  =  25.00
                  Electrical balance (eq)  =  5.393e-020
 Percent error, 100*(Cat-|An|)/(Cat+|An|)  =   0.00
                               Iterations  =   0
                                  Total H  = 1.110124e+002
                                  Total O  = 5.550622e+001

----------------------------Distribution of species----------------------------

                                               Log       Log       Log    mole V
   Species          Molality    Activity  Molality  Activity     Gamma    cm³/mol

   H+             1.006e-007  1.006e-007    -6.997    -6.997    -0.000      0.00
   OH-            1.006e-007  1.006e-007    -6.997    -6.997    -0.000     -4.14
   H2O            5.551e+001  1.000e+000     1.744    -0.000     0.000     18.07
H(0)         3.608e-031
   H2             1.804e-031  1.804e-031   -30.744   -30.744     0.000     28.61
O(0)         2.563e-031
   O2             1.281e-031  1.281e-031   -30.892   -30.892     0.000     30.40
Tf_          1.000e-006
   Tf_            1.000e-006  1.000e-006    -6.000    -6.000     0.000     (0)  

------------------------------Saturation indices-------------------------------

  Phase               SI** log IAP   log K(298 K,   1 atm)

  H2(g)           -27.64    -30.74   -3.10  H2
  H2O(g)           -1.50     -0.00    1.50  H2O
  O2(g)           -28.00    -30.89   -2.89  O2

**For a gas, SI = log10(fugacity). Fugacity = pressure * phi / 1 atm.
  For ideal gases, phi = 1.

Using solution 24.	Fracture water: Pure water with a tracer

----------------------------------User print-----------------------------------

.********************************************************************************* 
density =  0.99704  kg/L 
Vol_soln =  1.00297  L 
Mass_soln =  1.00000  kg 
H2O =  1.00000  kg 
STEP_NO =            0    CELL_NO =           24 
-********************************************************************************* 

-----------------------------Solution composition------------------------------

	Elements           Molality       Moles

	Tf_              1.000e-006  1.000e-006

----------------------------Description of solution----------------------------

                                       pH  =   6.997      Charge balance
                                       pe  =   6.800      Adjusted to redox equilibrium
      Specific Conductance (µS/cm,  25°C)  = 0
                          Density (g/cm³)  =   0.99704
                               Volume (L)  =   1.00297
                        Activity of water  =   1.000
                 Ionic strength (mol/kgw)  =  1.006e-007
                       Mass of water (kg)  =  1.000e+000
                 Total alkalinity (eq/kg)  = -5.393e-020
                         Temperature (°C)  =  25.00
                  Electrical balance (eq)  =  5.393e-020
 Percent error, 100*(Cat-|An|)/(Cat+|An|)  =   0.00
                               Iterations  =   0
                                  Total H  = 1.110124e+002
[...]
                       Mass of water (kg)  =  1.000e+000
                 Total alkalinity (eq/kg)  = -5.393e-020
                         Temperature (°C)  =  25.00
                  Electrical balance (eq)  =  5.393e-020
 Percent error, 100*(Cat-|An|)/(Cat+|An|)  =   0.00
                               Iterations  =   0
                                  Total H  = 1.110124e+002
                                  Total O  = 5.550622e+001

----------------------------Distribution of species----------------------------

                                               Log       Log       Log    mole V
   Species          Molality    Activity  Molality  Activity     Gamma    cm³/mol

   H+             1.006e-007  1.006e-007    -6.997    -6.997    -0.000      0.00
   OH-            1.006e-007  1.006e-007    -6.997    -6.997    -0.000     -4.14
   H2O            5.551e+001  1.000e+000     1.744    -0.000     0.000     18.07
H(0)         3.440e-031
   H2             1.720e-031  1.720e-031   -30.765   -30.765     0.000     28.61
O(0)         2.819e-031
   O2             1.409e-031  1.409e-031   -30.851   -30.851     0.000     30.40
Ti_          1.000e-006
   Ti_            1.000e-006  1.000e-006    -6.000    -6.000     0.000     (0)  

------------------------------Saturation indices-------------------------------

  Phase               SI** log IAP   log K(298 K,   1 atm)

  H2(g)           -27.66    -30.76   -3.10  H2
  H2O(g)           -1.50     -0.00    1.50  H2O
  O2(g)           -27.96    -30.85   -2.89  O2

**For a gas, SI = log10(fugacity). Fugacity = pressure * phi / 1 atm.
  For ideal gases, phi = 1.

Using mix 96.	

Mixture 96.	

	 3.224e-001 Solution 95	Solution after simulation 3.                           
	 3.552e-001 Solution 96	Solution after simulation 3.                           
	 3.224e-001 Solution 97	Solution after simulation 3.                           

----------------------------------User print-----------------------------------

.********************************************************************************* 
density =  0.99704  kg/L 
Vol_soln =  1.00297  L 
Mass_soln =  1.00000  kg 
H2O =  1.00000  kg 
Years = 0.01095 
STEP_NO =          375    CELL_NO =           96 
-********************************************************************************* 

-----------------------------Solution composition------------------------------

	Elements           Molality       Moles

	Ti_              1.000e-006  1.000e-006

----------------------------Description of solution----------------------------

                                       pH  =   6.997      Charge balance
                                       pe  =   6.812      Adjusted to redox equilibrium
      Specific Conductance (µS/cm,  25°C)  = 0
                          Density (g/cm³)  =   0.99704
                               Volume (L)  =   1.00297
                        Activity of water  =   1.000
                 Ionic strength (mol/kgw)  =  1.006e-007
                       Mass of water (kg)  =  1.000e+000
                 Total alkalinity (eq/kg)  = -5.393e-020
                         Temperature (°C)  =  25.00
                  Electrical balance (eq)  =  5.393e-020
 Percent error, 100*(Cat-|An|)/(Cat+|An|)  =   0.00
                               Iterations  =   0
                                  Total H  = 1.110124e+002
                                  Total O  = 5.550622e+001

----------------------------Distribution of species----------------------------

                                               Log       Log       Log    mole V
   Species          Molality    Activity  Molality  Activity     Gamma    cm³/mol

   H+             1.006e-007  1.006e-007    -6.997    -6.997    -0.000      0.00
   OH-            1.006e-007  1.006e-007    -6.997    -6.997    -0.000     -4.14
   H2O            5.551e+001  1.000e+000     1.744    -0.000     0.000     18.07
H(0)         3.401e-031
   H2             1.701e-031  1.701e-031   -30.769   -30.769     0.000     28.61
O(0)         2.882e-031
   O2             1.441e-031  1.441e-031   -30.841   -30.841     0.000     30.40
Ti_          1.000e-006
   Ti_            1.000e-006  1.000e-006    -6.000    -6.000     0.000     (0)  

------------------------------Saturation indices-------------------------------

  Phase               SI** log IAP   log K(298 K,   1 atm)

  H2(g)           -27.67    -30.77   -3.10  H2
  H2O(g)           -1.50     -0.00    1.50  H2O
  O2(g)           -27.95    -30.84   -2.89  O2

**For a gas, SI = log10(fugacity). Fugacity = pressure * phi / 1 atm.
  For ideal gases, phi = 1.

Using mix 97.	

Mixture 97.	

	 3.224e-001 Solution 96	Solution after simulation 3.                           
	 3.552e-001 Solution 97	Solution after simulation 3.                           
	 3.224e-001 Solution 98	Solution after simulation 3.                           

----------------------------------User print-----------------------------------

.********************************************************************************* 
density =  0.99704  kg/L 
Vol_soln =  1.00297  L 
Mass_soln =  1.00000  kg 
H2O =  1.00000  kg 
Years = 0.01095 
STEP_NO =          375    CELL_NO =           97 
-********************************************************************************* 

-----------------------------Solution composition------------------------------

	Elements           Molality       Moles

	Ti_              1.000e-006  1.000e-006

----------------------------Description of solution----------------------------

                                       pH  =   6.997      Charge balance
                                       pe  =   6.815      Adjusted to redox equilibrium
      Specific Conductance (µS/cm,  25°C)  = 0
                          Density (g/cm³)  =   0.99704
                               Volume (L)  =   1.00297
                        Activity of water  =   1.000
                 Ionic strength (mol/kgw)  =  1.006e-007
                       Mass of water (kg)  =  1.000e+000
                 Total alkalinity (eq/kg)  = -5.393e-020
                         Temperature (°C)  =  25.00
                  Electrical balance (eq)  =  5.393e-020
 Percent error, 100*(Cat-|An|)/(Cat+|An|)  =   0.00
                               Iterations  =   0
                                  Total H  = 1.110124e+002
                                  Total O  = 5.550622e+001

----------------------------Distribution of species----------------------------

                                               Log       Log       Log    mole V
   Species          Molality    Activity  Molality  Activity     Gamma    cm³/mol

   H+             1.006e-007  1.006e-007    -6.997    -6.997    -0.000      0.00
   OH-            1.006e-007  1.006e-007    -6.997    -6.997    -0.000     -4.14
   H2O            5.551e+001  1.000e+000     1.744    -0.000     0.000     18.07
H(0)         3.360e-031
   H2             1.680e-031  1.680e-031   -30.775   -30.775     0.000     28.61
O(0)         2.954e-031
   O2             1.477e-031  1.477e-031   -30.831   -30.831     0.000     30.40
Ti_          1.000e-006
   Ti_            1.000e-006  1.000e-006    -6.000    -6.000     0.000     (0)  

------------------------------Saturation indices-------------------------------

  Phase               SI** log IAP   log K(298 K,   1 atm)

  H2(g)           -27.67    -30.77   -3.10  H2
  H2O(g)           -1.50     -0.00    1.50  H2O
  O2(g)           -27.94    -30.83   -2.89  O2

**For a gas, SI = log10(fugacity). Fugacity = pressure * phi / 1 atm.
  For ideal gases, phi = 1.

Using mix 98.	

Mixture 98.	

	 3.224e-001 Solution 97	Solution after simulation 3.                           
	 3.552e-001 Solution 98	Solution after simulation 3.                           
	 3.224e-001 Solution 99	Solution after simulation 3.                           

----------------------------------User print-----------------------------------

.********************************************************************************* 
density =  0.99704  kg/L 
Vol_soln =  1.00297  L 
Mass_soln =  1.00000  kg 
H2O =  1.00000  kg 
Years = 0.01095 
STEP_NO =          375    CELL_NO =           98 
-********************************************************************************* 

-----------------------------Solution composition------------------------------

	Elements           Molality       Moles

	Ti_              1.000e-006  1.000e-006

----------------------------Description of solution----------------------------

                                       pH  =   6.997      Charge balance
                                       pe  =   6.818      Adjusted to redox equilibrium
      Specific Conductance (µS/cm,  25°C)  = 0
                          Density (g/cm³)  =   0.99704
                               Volume (L)  =   1.00297
                        Activity of water  =   1.000
                 Ionic strength (mol/kgw)  =  1.006e-007
                       Mass of water (kg)  =  1.000e+000
                 Total alkalinity (eq/kg)  = -5.393e-020
                         Temperature (°C)  =  25.00
                  Electrical balance (eq)  =  5.393e-020
 Percent error, 100*(Cat-|An|)/(Cat+|An|)  =   0.00
                               Iterations  =   0
                                  Total H  = 1.110124e+002
                                  Total O  = 5.550622e+001

----------------------------Distribution of species----------------------------

                                               Log       Log       Log    mole V
   Species          Molality    Activity  Molality  Activity     Gamma    cm³/mol

   H+             1.006e-007  1.006e-007    -6.997    -6.997    -0.000      0.00
   OH-            1.006e-007  1.006e-007    -6.997    -6.997    -0.000     -4.14
   H2O            5.551e+001  1.000e+000     1.744    -0.000     0.000     18.07
H(0)         3.319e-031
   H2             1.659e-031  1.659e-031   -30.780   -30.780     0.000     28.61
O(0)         3.028e-031
   O2             1.514e-031  1.514e-031   -30.820   -30.820     0.000     30.40
Ti_          1.000e-006
   Ti_            1.000e-006  1.000e-006    -6.000    -6.000     0.000     (0)  

------------------------------Saturation indices-------------------------------

  Phase               SI** log IAP   log K(298 K,   1 atm)

  H2(g)           -27.68    -30.78   -3.10  H2
  H2O(g)           -1.50     -0.00    1.50  H2O
  O2(g)           -27.93    -30.82   -2.89  O2

**For a gas, SI = log10(fugacity). Fugacity = pressure * phi / 1 atm.
  For ideal gases, phi = 1.

Using mix 99.	

Mixture 99.	

	 3.224e-001 Solution 98	Solution after simulation 3.                           
	 3.552e-001 Solution 99	Solution after simulation 3.                           
	 3.224e-001 Solution 100	Solution after simulation 3.                           

----------------------------------User print-----------------------------------

.********************************************************************************* 
density =  0.99704  kg/L 
Vol_soln =  1.00297  L 
Mass_soln =  1.00000  kg 
H2O =  1.00000  kg 
Years = 0.01095 
STEP_NO =          375    CELL_NO =           99 
-********************************************************************************* 

-----------------------------Solution composition------------------------------

	Elements           Molality       Moles

	Ti_              1.000e-006  1.000e-006

----------------------------Description of solution----------------------------

                                       pH  =   6.997      Charge balance
                                       pe  =   6.820      Adjusted to redox equilibrium
      Specific Conductance (µS/cm,  25°C)  = 0
                          Density (g/cm³)  =   0.99704
                               Volume (L)  =   1.00297
                        Activity of water  =   1.000
                 Ionic strength (mol/kgw)  =  1.006e-007
                       Mass of water (kg)  =  1.000e+000
                 Total alkalinity (eq/kg)  = -5.393e-020
                         Temperature (°C)  =  25.00
                  Electrical balance (eq)  =  5.393e-020
 Percent error, 100*(Cat-|An|)/(Cat+|An|)  =   0.00
                               Iterations  =   0
                                  Total H  = 1.110124e+002
                                  Total O  = 5.550622e+001

----------------------------Distribution of species----------------------------

                                               Log       Log       Log    mole V
   Species          Molality    Activity  Molality  Activity     Gamma    cm³/mol

   H+             1.006e-007  1.006e-007    -6.997    -6.997    -0.000      0.00
   OH-            1.006e-007  1.006e-007    -6.997    -6.997    -0.000     -4.14
   H2O            5.551e+001  1.000e+000     1.744    -0.000     0.000     18.07
H(0)         3.284e-031
   H2             1.642e-031  1.642e-031   -30.785   -30.785     0.000     28.61
O(0)         3.092e-031
   O2             1.546e-031  1.546e-031   -30.811   -30.811     0.000     30.40
Ti_          1.000e-006
   Ti_            1.000e-006  1.000e-006    -6.000    -6.000     0.000     (0)  

------------------------------Saturation indices-------------------------------

  Phase               SI** log IAP   log K(298 K,   1 atm)

  H2(g)           -27.68    -30.78   -3.10  H2
  H2O(g)           -1.50     -0.00    1.50  H2O
  O2(g)           -27.92    -30.81   -2.89  O2

**For a gas, SI = log10(fugacity). Fugacity = pressure * phi / 1 atm.
  For ideal gases, phi = 1.

Using mix 100.	

Mixture 100.	

	 3.224e-001 Solution 99	Solution after simulation 3.                           
	 6.776e-001 Solution 100	Solution after simulation 3.                           
	 0.000e+000 Solution 101	Solution after simulation 3.                           

----------------------------------User print-----------------------------------

.********************************************************************************* 
density =  0.99704  kg/L 
Vol_soln =  1.00297  L 
Mass_soln =  1.00000  kg 
H2O =  1.00000  kg 
Years = 0.01095 
STEP_NO =          375    CELL_NO =          100 
-********************************************************************************* 

-----------------------------Solution composition------------------------------

	Elements           Molality       Moles

	Ti_              1.000e-006  1.000e-006

----------------------------Description of solution----------------------------

                                       pH  =   6.997      Charge balance
                                       pe  =   6.821      Adjusted to redox equilibrium
      Specific Conductance (µS/cm,  25°C)  = 0
                          Density (g/cm³)  =   0.99704
                               Volume (L)  =   1.00297
                        Activity of water  =   1.000
                 Ionic strength (mol/kgw)  =  1.006e-007
                       Mass of water (kg)  =  1.000e+000
                 Total alkalinity (eq/kg)  = -5.393e-020
                         Temperature (°C)  =  25.00
                  Electrical balance (eq)  =  5.393e-020
 Percent error, 100*(Cat-|An|)/(Cat+|An|)  =   0.00
                               Iterations  =   0
                                  Total H  = 1.110124e+002
                                  Total O  = 5.550622e+001

----------------------------Distribution of species----------------------------

                                               Log       Log       Log    mole V
   Species          Molality    Activity  Molality  Activity     Gamma    cm³/mol

   H+             1.006e-007  1.006e-007    -6.997    -6.997    -0.000      0.00
   OH-            1.006e-007  1.006e-007    -6.997    -6.997    -0.000     -4.14
   H2O            5.551e+001  1.000e+000     1.744    -0.000     0.000     18.07
H(0)         3.265e-031
   H2             1.632e-031  1.632e-031   -30.787   -30.787     0.000     28.61
O(0)         3.129e-031
   O2             1.565e-031  1.565e-031   -30.806   -30.806     0.000     30.40
Ti_          1.000e-006
   Ti_            1.000e-006  1.000e-006    -6.000    -6.000     0.000     (0)  

------------------------------Saturation indices-------------------------------

  Phase               SI** log IAP   log K(298 K,   1 atm)

  H2(g)           -27.69    -30.79   -3.10  H2
  H2O(g)           -1.50     -0.00    1.50  H2O
  O2(g)           -27.91    -30.81   -2.89  O2

**For a gas, SI = log10(fugacity). Fugacity = pressure * phi / 1 atm.
  For ideal gases, phi = 1.

Using solution 101.	Solution after simulation 3.

----------------------------------User print-----------------------------------

.********************************************************************************* 
density =  0.99704  kg/L 
Vol_soln =  1.00297  L 
Mass_soln =  1.00000  kg 
H2O =  1.00000  kg 
Years = 0.01095 
STEP_NO =          375    CELL_NO =          101 
-********************************************************************************* 

-----------------------------Solution composition------------------------------

	Elements           Molality       Moles

	Tf_              1.000e-006  1.000e-006

----------------------------Description of solution----------------------------

                                       pH  =   6.997      Charge balance
                                       pe  =   6.800      Adjusted to redox equilibrium
      Specific Conductance (µS/cm,  25°C)  = 0
                          Density (g/cm³)  =   0.99704
                               Volume (L)  =   1.00297
                        Activity of water  =   1.000
                 Ionic strength (mol/kgw)  =  1.006e-007
                       Mass of water (kg)  =  1.000e+000
                 Total alkalinity (eq/kg)  = -5.393e-020
                         Temperature (°C)  =  25.00
                  Electrical balance (eq)  =  5.393e-020
 Percent error, 100*(Cat-|An|)/(Cat+|An|)  =   0.00
                               Iterations  =   0
                                  Total H  = 1.110124e+002
                                  Total O  = 5.550622e+001

----------------------------Distribution of species----------------------------

                                               Log       Log       Log    mole V
   Species          Molality    Activity  Molality  Activity     Gamma    cm³/mol

   H+             1.006e-007  1.006e-007    -6.997    -6.997    -0.000      0.00
   OH-            1.006e-007  1.006e-007    -6.997    -6.997    -0.000     -4.14
   H2O            5.551e+001  1.000e+000     1.744    -0.000     0.000     18.07
H(0)         3.608e-031
   H2             1.804e-031  1.804e-031   -30.744   -30.744     0.000     28.61
O(0)         2.563e-031
   O2             1.281e-031  1.281e-031   -30.892   -30.892     0.000     30.40
Tf_          1.000e-006
   Tf_            1.000e-006  1.000e-006    -6.000    -6.000     0.000     (0)  

------------------------------Saturation indices-------------------------------

  Phase               SI** log IAP   log K(298 K,   1 atm)

  H2(g)           -27.64    -30.74   -3.10  H2
  H2O(g)           -1.50     -0.00    1.50  H2O
  O2(g)           -28.00    -30.89   -2.89  O2

**For a gas, SI = log10(fugacity). Fugacity = pressure * phi / 1 atm.
  For ideal gases, phi = 1.

Transport step 376.

Transport step 376. Mixrun   1.

Transport step 376. Mixrun   2.

Transport step 376. Mixrun   3.

Transport step 376. Mixrun   4.

------------------
End of simulation.
------------------

------------------------------------
Reading input data for simulation 4.
------------------------------------

	PRINT
	   reset true
	END
------------------
End of simulation.
------------------

------------------------------------
Reading input data for simulation 5.
------------------------------------

--------------------------------
End of Run after 26.916 Seconds.
--------------------------------

